
  Mrv2114 09072111422D          

  0  0  0     0  0            999 V3000
M  V30 BEGIN CTAB
M  V30 COUNTS 31 30 0 0 0
M  V30 BEGIN ATOM
M  V30 1 C 10.2917 -10.3645 0 0
M  V30 2 N 11.282 -9.0308 0 0
M  V30 3 C 10.512 -7.6971 0 0
M  V30 4 C 11.282 -6.3635 0 0
M  V30 5 C 10.512 -5.0298 0 0
M  V30 6 C 11.282 -3.6961 0 0
M  V30 7 C 10.512 -2.3624 0 0
M  V30 8 C 11.282 -1.0288 0 0
M  V30 9 C 10.512 0.3049 0 0
M  V30 10 C 11.282 1.6386 0 0
M  V30 11 C 10.512 2.9723 0 0
M  V30 12 C 11.282 4.306 0 0
M  V30 13 C 10.512 5.6396 0 0
M  V30 14 S 11.6498 6.9623 0 0
M  V30 15 S 13.5782 6.9503 0 0
M  V30 16 C 14.3482 5.6166 0 0
M  V30 17 C 13.5782 4.2829 0 0
M  V30 18 C 14.3482 2.9493 0 0
M  V30 19 C 13.5782 1.6156 0 0
M  V30 20 C 14.3482 0.2819 0 0
M  V30 21 C 13.5782 -1.0518 0 0
M  V30 22 C 14.3482 -2.3855 0 0
M  V30 23 C 13.5782 -3.7191 0 0
M  V30 24 C 14.3482 -5.0528 0 0
M  V30 25 C 13.5782 -6.3865 0 0
M  V30 26 C 14.3482 -7.7202 0 0
M  V30 27 N 13.5782 -9.0538 0 0 CHG=1
M  V30 28 C 12.4208 -10.1122 0 0
M  V30 29 C 13.9656 -10.6508 0 0
M  V30 30 C 15.066 -9.3723 0 0
M  V30 31 C 9.683 -8.7555 0 0
M  V30 END ATOM
M  V30 BEGIN BOND
M  V30 1 1 3 4
M  V30 2 1 4 5
M  V30 3 1 5 6
M  V30 4 1 6 7
M  V30 5 1 7 8
M  V30 6 1 8 9
M  V30 7 1 9 10
M  V30 8 1 10 11
M  V30 9 1 12 11
M  V30 10 1 12 13
M  V30 11 1 13 14
M  V30 12 1 14 15
M  V30 13 1 15 16
M  V30 14 1 16 17
M  V30 15 1 17 18
M  V30 16 1 18 19
M  V30 17 1 19 20
M  V30 18 1 20 21
M  V30 19 1 21 22
M  V30 20 1 22 23
M  V30 21 1 23 24
M  V30 22 1 24 25
M  V30 23 1 25 26
M  V30 24 1 26 27
M  V30 25 1 27 28
M  V30 26 1 27 29
M  V30 27 1 27 30
M  V30 28 1 1 2
M  V30 29 1 2 3
M  V30 30 1 2 31
M  V30 END BOND
M  V30 END CTAB
M  END
